reduced_networks/ieee37/77pct/dss/Branches.dss
! Radial Kron-equivalent series elements
new Reactor.kr_2_9 phases=1 bus1=799.2 bus2=799r.2 rmatrix=[0.0009999999999999998] xmatrix=[1.77635683940025e-21]
new Reactor.kr_3_4 phases=3 bus1=701.1.2.3 bus2=702.1.2.3 rmatrix=[0.08638181855999999 | 0.02961818207999998 0.08160000000000003 | 0.02243636351999999 0.02961818207999999 0.08638181856000002] xmatrix=[0.05405454528000003 | -0.005927272320000019 0.04869090912000002 | -0.01103636352000001 -0.005927272320000001 0.05405454527999999]
new Reactor.kr_3_9 phases=3 bus1=701.1.2.3 bus2=799r.1.2.3 rmatrix=[0.10252083395 | 0.02358049220000002 0.0927102266 | 0.01180776560000002 0.0235804922 0.10252083395] xmatrix=[0.0691297344 | -0.01289393945 0.06657196879999998 | -0.01461079495 -0.01289393945000001 0.06912973439999999]
new Reactor.kr_4_5 phases=3 bus1=702.1.2.3 bus2=703.1.2.3 rmatrix=[0.1187750005199998 | 0.04072500035999976 0.1122 | 0.03084999984000003 0.04072500035999978 0.1187750005199998] xmatrix=[0.07432499976000008 | -0.008149999439999901 0.06695000004000003 | -0.01517499983999995 -0.008149999439999903 0.07432499976000036]
new Reactor.kr_4_7 phases=3 bus1=702.1.2.3 bus2=720.1.2.3 rmatrix=[0.4115989269318578 | 0.1549856659671042 0.4143353026606024 | 0.1458857371702368 0.1549856659671024 0.4115989269318506] xmatrix=[0.2135962813502543 | 0.06716879087903228 0.2012826844795081 | 0.04839605972020138 0.06716879087903312 0.2135962813502531]
new Reactor.kr_5_6 phases=3 bus1=703.1.2.3 bus2=730.1.2.3 rmatrix=[0.147 | 0.05535227279999999 0.1479772727999999 | 0.0521022726 0.05535227279999993 0.147] xmatrix=[0.07628409120000007 | 0.02398863659999998 0.07188636359999996 | 0.01728409079999996 0.02398863659999993 0.07628409120000006]
new Reactor.kr_6_8 phases=3 bus1=730.1.2.3 bus2=734.1.2.3 rmatrix=[0.3429992828338084 | 0.1291548367535533 0.3452795939748523 | 0.1215715509104837 0.1291548367535524 0.3429992828338092] xmatrix=[0.1779967648435353 | 0.05597389204113362 0.1677354274493264 | 0.04032994988936953 0.05597389204113287 0.1779967648435358]
